Circuit: * G:\TraDiHab\03_Electrical\04_Temp_sensor\Simulation_LM317.asc

Direct Newton iteration failed to find .op point.  (Use ".option noopiter" to skip.)
Starting Gmin stepping
Gmin = 10
Gmin = 1.07374
vernier = 0.5
vernier = 0.25
vernier = 0.125
vernier = 0.0625
Gmin = 1.1391
vernier = 0.03125
vernier = 0.015625
vernier = 0.0078125
vernier = 0.00390625
Gmin = 1.12806
vernier = 0.00195313
vernier = 0.000976563
Gmin = 1.12449
vernier = 0.00130208
vernier = 0.000651042
vernier = 0.000488281
vernier = 0.000651041
Gmin = 1.12325
vernier = 0.000488281
Gmin = 0
Gmin stepping failed

Starting source stepping with srcstepmethod=0
Source Step = 3.0303%
Source Step = 33.3333%
Source Step = 63.6364%
Source Step = 93.9394%
Source stepping succeeded in finding the operating point.

.step r=100
.step r=101
.step r=102
.step r=103
.step r=104
.step r=105
.step r=106
.step r=107
.step r=108
.step r=109
.step r=110
.step r=111
.step r=112
.step r=113
.step r=114
.step r=115
.step r=116
.step r=117
.step r=118
.step r=119
.step r=120
.step r=121
.step r=122
.step r=123
.step r=124
.step r=125
.step r=126
.step r=127
.step r=128
.step r=129
.step r=130
.step r=131
.step r=132
.step r=133
.step r=134
.step r=135
.step r=136
.step r=137
.step r=138
.step r=139
.step r=140

Date: Mon Oct 28 14:09:59 2019
Total elapsed time: 19.004 seconds.

tnom = 27
temp = 27
method = modified trap
totiter = 5416
traniter = 2096
tranpoints = 1049
accept = 1049
rejected = 0
matrix size = 91
fillins = 178
solver = Normal
Thread vector: 8.1/4.9[2] 4.2/2.8[2] 2.5/2.2[2] 0.4/4.4[1]  2592/500
Matrix Compiler1: 19.10 KB object code size  4.2/2.1/[0.8]
Matrix Compiler2: 12.69 KB object code size  1.3/1.5/[0.6]

